64
Lattice="10.862 0 0 0 10.862 0 0 0 10.862 " PBC="1 1 1" Properties=species:S:1:pos:R:3:force:R:3 Energy="-272.89139"
Si    1.08845e+01   2.52820e-02   1.07067e+01 -1.55709e-01  -9.91907e-01   2.00533e+00
Si    2.71776e+00   2.76860e+00  -1.32744e-02 -8.31924e-01   1.64169e-01  -7.88431e-02
Si    1.09379e+01   2.62039e+00   2.73174e+00 -2.54929e-01   7.15361e-01  -4.41133e-01
Si    2.69115e+00  -2.42743e-02   2.75971e+00  5.95271e-01   1.75718e-01  -4.00328e-01
Si    1.42098e+00   1.30004e+00   1.29411e+00 -5.80240e-01   2.82915e-01   6.53391e-02
Si    3.99713e+00   4.01849e+00   1.45235e+00  8.05363e-01   3.41239e-01  -7.29688e-01
Si    1.43968e+00   4.06293e+00   4.07204e+00 -8.23487e-01   1.56047e-02   2.32339e-01
C    4.09772e+00   1.26348e+00   4.15078e+00 -4.59120e-01   1.17055e+00  -9.85557e-01
Si    5.30203e+00   1.08121e+01   1.08010e+01  2.03758e-01  -3.34273e-02   1.25131e+00
Si    8.15766e+00   2.68522e+00   1.07367e+01  2.15767e-01   6.26227e-01   1.60105e+00
Si    5.43191e+00   2.60115e+00   2.63080e+00 -3.29769e-02   5.80762e-01   1.55207e+00
Si    8.15723e+00   1.09088e+01   2.67657e+00 -2.50201e-01  -1.03760e+00  -7.25650e-01
Si    6.77706e+00   1.33575e+00   1.23187e+00  5.79189e-02  -5.78415e-01  -1.33541e-01
Si    9.55998e+00   4.03799e+00   1.32652e+00  6.30999e-01  -1.10591e+00  -7.11305e-01
Si    6.80799e+00   4.04956e+00   4.04657e+00  1.36754e-01  -1.24603e+00  -9.28454e-01
Si    9.51456e+00   1.29292e+00   4.06791e+00 -1.94886e-01   1.36174e+00   2.65320e-01
Si    1.09028e+01   5.47673e+00   1.08430e+01 -5.01832e-01  -1.58907e-02   1.29413e-01
Si    2.76501e+00   8.14566e+00   9.20678e-03 -5.86744e-01   1.37888e-01  -2.30226e-01
Si   -3.84732e-02   8.18388e+00   2.69552e+00  7.67934e-02  -4.44829e-01   1.11181e+00
Si    2.74392e+00   5.45465e+00   2.74603e+00 -7.22323e-01   9.41142e-01  -1.81837e-01
Si    1.31714e+00   6.89960e+00   1.34397e+00  9.43403e-01  -1.33540e+00   3.84611e-01
Si    4.02086e+00   9.40438e+00   1.45884e+00  9.46069e-01   9.20571e-01  -4.77190e-01
Si    1.32523e+00   9.56153e+00   4.06581e+00 -7.35982e-01  -1.80193e-01   9.36450e-01
Si    4.10570e+00   6.80635e+00   4.13803e+00 -4.13159e-02  -7.53051e-01  -6.48603e-02
Si    5.33588e+00   5.43998e+00   1.02977e-01  4.64495e-01  -1.39599e+00  -6.89798e-01
C    8.05450e+00   8.01440e+00   3.96543e-02  2.97398e-01   1.11844e+00  -4.82488e-01
Si    5.48115e+00   8.06435e+00   2.74360e+00 -6.14091e-01   8.90909e-02  -3.64582e-01
Si    8.24974e+00   5.32983e+00   2.65956e+00 -1.15574e+00   6.51296e-01   8.01292e-01
Si    6.75686e+00   6.67442e+00   1.38256e+00  5.79101e-01   1.51782e-02   7.33616e-01
Si    9.47038e+00   9.41757e+00   1.33478e+00 -5.13355e-02   1.60530e+00  -1.10661e+00
Si    6.81425e+00   9.46199e+00   3.97398e+00  3.14263e-01   5.47434e-01   1.21095e+00
Si    9.53131e+00   6.70081e+00   4.08706e+00  2.28776e-01   8.35848e-01  -5.26611e-01
Si   -1.54559e-02   1.19025e-01   5.51970e+00  3.99788e-01  -1.45334e+00  -6.74839e-01
Si    2.72432e+00   2.71878e+00   5.46968e+00  1.09726e+00   2.62405e-01  -3.29329e-01
Si    1.09166e+01   2.78752e+00   8.11984e+00 -3.58638e-01   8.38963e-01   1.15483e-01
Si    2.72101e+00  -4.53199e-02   8.09781e+00  6.87526e-02   1.12171e+00   1.50566e-01
Si    1.40906e+00   1.43990e+00   6.80092e+00 -4.44491e-01  -8.07655e-01   4.62781e-01
Si    4.02536e+00   4.09780e+00   6.90435e+00 -3.62960e-01   5.03655e-01  -1.37867e+00
Si    1.43125e+00   4.23303e+00   9.44403e+00 -5.77487e-01  -1.20483e+00   6.04055e-01
Si    3.95862e+00   1.36408e+00   9.51456e+00  6.78546e-01  -2.10807e-01  -6.48376e-01
Si    5.45688e+00  -3.94292e-02   5.42946e+00  8.51698e-01  -4.65555e-01   6.30219e-01
C    8.14387e+00   2.70161e+00   5.44906e+00  1.39489e-01   1.79348e-02  -6.06797e-02
Si    5.32666e+00   2.73475e+00   8.16122e+00  8.94350e-01  -2.92816e-01   1.15479e+00
Si    8.13051e+00   2.91742e-03   8.22023e+00 -3.02150e-01   4.71536e-02  -4.21941e-01
Si    6.74908e+00   1.39077e+00   6.86706e+00  1.54134e-01  -4.65330e-01  -6.25526e-01
Si    9.46059e+00   4.17368e+00   6.78752e+00  6.28939e-01  -3.60888e-01   1.88558e-01
Si    6.76179e+00   4.07666e+00   9.54715e+00 -1.03592e+00   5.35820e-01  -4.00457e-01
Si    9.55474e+00   1.41418e+00   9.46134e+00 -6.15028e-02  -2.78742e-01  -9.18477e-01
Si    1.09755e+01   5.49048e+00   5.46197e+00 -9.81819e-01  -1.21302e+00  -5.15269e-01
Si    2.71459e+00   8.20234e+00   5.42475e+00  2.60725e-01   2.48513e-01   1.43278e-01
Si    1.08378e+01   8.24858e+00   8.19737e+00 -3.64675e-01  -7.55907e-01  -8.13539e-01
Si    2.70117e+00   5.61978e+00   8.14061e+00  8.38475e-01  -4.75096e-01  -5.94859e-02
Si    1.33665e+00   6.89002e+00   6.76893e+00  1.16703e-01   8.35196e-01   7.16284e-01
Si    4.12901e+00   9.48700e+00   6.85365e+00 -5.33692e-01   2.08416e-01  -1.45737e+00
Si    1.44729e+00   9.51860e+00   9.47408e+00 -5.14330e-01  -3.19187e-01   3.49375e-01
C    4.14774e+00   6.82813e+00   9.54229e+00 -4.99405e-01   1.85776e-01  -4.21043e-01
Si    5.44590e+00   5.29075e+00   5.41548e+00 -6.19045e-01   1.28420e+00   5.71548e-01
Si    8.14498e+00   8.09044e+00   5.40948e+00  2.09383e-01   5.15762e-01  -7.82864e-01
Si    5.46611e+00   8.15702e+00   8.11275e+00  2.27699e-01  -9.35350e-01   3.12738e-01
Si    8.08406e+00   5.51159e+00   8.20811e+00 -1.37995e-01  -1.00705e+00  -9.70478e-01
Si    6.78248e+00   6.77078e+00   6.70459e+00 -4.84048e-01  -2.95199e-01   7.91892e-01
Si    9.43142e+00   9.53599e+00   6.75313e+00  4.91186e-01   8.46936e-02   7.20599e-01
Si    6.71557e+00   9.47026e+00   9.53376e+00  9.40735e-01  -4.68722e-02   8.42826e-02
Si    9.46240e+00   6.78073e+00   9.49901e+00  7.76993e-01   7.19624e-01   4.59691e-01
